* model for a 2n2222 transistor
.model 2N2222 NPN (is=19f bf=150 vaf=100 ikf=0.18 ise=50p
+ ne=2.5 br=7.5 var=6.4 ikr=12m isc=8.7p nc=1.2 rb=50 re=0.4
+ rc=0.3 cje=26p tf=0.5n cjc=11p tr=7n xtb=1.5 kf=0.032f af=1)
