* xyce integrator
.SUBCKT XC-GAIN 1 2 PARAMS: in_offset=0.0 gain=1.0 out_offset=0.0
B1 2 0 V=(V(1)+in_offset)*gain+out_offset
*R1 1 0 1e12
R2 2 0 1e6
.ENDS
