* SPICE Generic diode model
.model diode D (N=0.001)
