* OPAMP MACRO MODEL, SINGLE-POLE 
* connections:      non-inverting input
*                   |   inverting input
*                   |   |  output
*                   |   |  |
.SUBCKT OPAMP       1   2  6
* INPUT IMPEDANCE
RIN	1	2	100MEG
* DCGAIN =100K AND POLE1=1/(2*PI*RP1*CP1)=100HZ
* GBP = DCGAIN X POLE1 = 10MHZ
EGAIN	3 0	1 2	1000K
RP1	3	4	1000
*CP1	4	0	1.5915UF
* OUTPUT BUFFER AND RESISTANCE
EBUFFER	5 0	4 0	1
ROUT	5	6	1
.ENDS

