* Generic P-channel MOSFET transistor
.MODEL PMOS PMOS
+  LEVEL=3
